*
V1 N001 0 12
R1 N002 N001 10000
R2 N002 N003 500
R3 N003 0 1000
R4 N003 0 1000
R5 N002 N003 100
.op
.backanno
.end
