*
R1 2 3 10000
R2 3 0 22000
V1 1 0 10
R3 2 1 30000
.backanno
.end